data_cif
_symmetry_space_group_name_H-M     "P C M 21"
_symmetry_Int_Tables_number        26
_symmetry_cell_setting             Orthorhombic

_cell_length_a                       8.290000
_cell_length_b                      14.000000
_cell_length_c                       7.225000
_cell_angle_alpha                   90.000000
_cell_angle_beta                    90.000000
_cell_angle_gamma                   90.000000

loop_
_atom_site_label
_atom_site_fract_x
_atom_site_fract_y
_atom_site_fract_z
_atom_site_occupancy
  C           0.46040      0.41640      0.00000  1.0000
  C           0.38270      0.32950      0.99980  1.0000
  C           0.21200      0.32710      0.99870  1.0000
  C           0.11960      0.40910      0.99940  1.0000
  C           0.19630      0.50000      0.00120  1.0000
  C           0.36380      0.50000      0.00030  1.0000
  C           0.63540      0.44370      0.99960  1.0000
  H           0.44870      0.26280      0.99720  1.0000
  H           0.15340      0.25840      0.99390  1.0000
  H           0.98590      0.40460      0.99800  1.0000
  H           0.69700      0.41580      0.87750  1.0000
  H           0.69760      0.41710      0.12220  1.0000
  C           0.28890      0.08360      0.66320  1.0000
  C           0.25160      0.17050      0.58650  1.0000
  C           0.17140      0.17270      0.41350  1.0000
  C           0.12650      0.09060      0.31970  1.0000
  C           0.16360      0.00000      0.39670  1.0000
  C           0.24300      0.00000      0.56680  1.0000
  C           0.37200      0.05540      0.83940  1.0000
  H           0.28200      0.23720      0.65240  1.0000
  H           0.14470      0.24120      0.35230  1.0000
  H           0.06410      0.09540      0.18680  1.0000
  H           0.31360      0.08530      0.95630  1.0000
  H           0.49410      0.08310      0.84430  1.0000
